# Name file for MODFLOW-2005, generated by Flopy version 3.4.1.
#xll:0.0; yll:0.0; rotation:0.0; units:meters; lenuni:2; start_datetime:1-1-1970
LIST               2  Jiading_test.list
DIS               11  Jiading_test.dis
LPF               15  Jiading_test.lpf
BAS6              13  Jiading_test.bas
OC                14  Jiading_test.oc
PCG               27  Jiading_test.pcg
LMT6              30  Jiading_test.lmt6
DATA(BINARY)       1  Jiading_test.cbc REPLACE
DATA(BINARY)      51  Jiading_test.hds REPLACE
DATA(BINARY)      52  Jiading_test.ddn REPLACE
